[root]
type=Root
children=system
eventq_index=0
full_system=true
sim_quantum=0
time_sync_enable=false
time_sync_period=100000000000
time_sync_spin_threshold=100000000

[system]
type=System
children=clk_domain cpu00 cpu01 cpu02 cpu03 cpu04 cpu05 cpu06 cpu07 cpu08 cpu09 cpu10 cpu11 cpu12 cpu13 cpu14 cpu15 cpu_clk_domain cpu_voltage_domain dvfs_handler iobus mem_ctrls0 mem_ctrls1 mem_ctrls2 mem_ctrls3 mem_ctrls4 mem_ctrls5 mem_ctrls6 mem_ctrls7 pc redirect_paths0 redirect_paths1 redirect_paths2 ruby sys_port_proxy voltage_domain workload
auto_unlink_shared_backstore=false
cache_line_size=64
eventq_index=0
exit_on_work_items=false
init_param=0
m5ops_base=4294901760
mem_mode=timing
mem_ranges=0:3221225472 4294967296:5368709120
memories=system.mem_ctrls0.dram system.mem_ctrls1.dram system.mem_ctrls2.dram system.mem_ctrls3.dram system.mem_ctrls4.dram system.mem_ctrls5.dram system.mem_ctrls6.dram system.mem_ctrls7.dram
mmap_using_noreserve=false
multi_thread=false
num_work_ids=16
readfile=./scripts/inputfile9
redirect_paths=system.redirect_paths0 system.redirect_paths1 system.redirect_paths2
shadow_rom_ranges=
shared_backstore=
symbolfile=
thermal_components=
thermal_model=Null
work_begin_ckpt_count=0
work_begin_cpu_id_exit=-1
work_begin_exit_count=0
work_cpus_ckpt_count=0
work_end_ckpt_count=0
work_end_exit_count=0
work_item_id=-1
workload=system.workload
system_port=system.sys_port_proxy.in_ports[0]

[system.clk_domain]
type=SrcClockDomain
clock=1000
domain_id=-1
eventq_index=0
init_perf_level=0
voltage_domain=system.voltage_domain

[system.cpu00]
type=BaseTimingSimpleCPU
children=decoder interrupts isa mmu power_state tracer
branchPred=Null
checker=Null
clk_domain=system.cpu_clk_domain
cpu_id=0
decoder=system.cpu00.decoder
do_checkpoint_insts=true
do_statistics_insts=true
eventq_index=0
function_trace=false
function_trace_start=0
interrupts=system.cpu00.interrupts
isa=system.cpu00.isa
max_insts_all_threads=0
max_insts_any_thread=0
mmu=system.cpu00.mmu
numThreads=1
power_gating_on_idle=false
power_model=
power_state=system.cpu00.power_state
progress_interval=0
pwr_gating_latency=300
simpoint_start_insts=
socket_id=0
switched_out=false
syscallRetryLatency=10000
system=system
tracer=system.cpu00.tracer
workload=
dcache_port=system.ruby.l0_cntrl0.sequencer.in_ports[1]
icache_port=system.ruby.l0_cntrl0.sequencer.in_ports[0]

[system.cpu00.decoder]
type=X86Decoder
eventq_index=0
isa=system.cpu00.isa

[system.cpu00.interrupts]
type=X86LocalApic
children=clk_domain
clk_domain=system.cpu00.interrupts.clk_domain
eventq_index=0
int_latency=1000
pio_latency=100000
system=system
int_requestor=system.ruby.l0_cntrl0.sequencer.in_ports[4]
int_responder=system.ruby.l0_cntrl0.sequencer.interrupt_out_port[1]
pio=system.ruby.l0_cntrl0.sequencer.interrupt_out_port[0]

[system.cpu00.interrupts.clk_domain]
type=DerivedClockDomain
clk_divider=16
clk_domain=system.cpu_clk_domain
eventq_index=0

[system.cpu00.isa]
type=X86ISA
eventq_index=0
vendor_string=HygonGenuine

[system.cpu00.mmu]
type=X86MMU
children=dtb itb
dtb=system.cpu00.mmu.dtb
eventq_index=0
itb=system.cpu00.mmu.itb

[system.cpu00.mmu.dtb]
type=X86TLB
children=walker
entry_type=data
eventq_index=0
next_level=Null
size=64
system=system
walker=system.cpu00.mmu.dtb.walker

[system.cpu00.mmu.dtb.walker]
type=X86PagetableWalker
children=power_state
clk_domain=system.cpu_clk_domain
eventq_index=0
num_squash_per_cycle=4
power_model=
power_state=system.cpu00.mmu.dtb.walker.power_state
system=system
port=system.ruby.l0_cntrl0.sequencer.in_ports[3]

[system.cpu00.mmu.dtb.walker.power_state]
type=PowerState
clk_gate_bins=20
clk_gate_max=1000000000000
clk_gate_min=1000
default_state=UNDEFINED
eventq_index=0
leaders=
possible_states=

[system.cpu00.mmu.itb]
type=X86TLB
children=walker
entry_type=instruction
eventq_index=0
next_level=Null
size=64
system=system
walker=system.cpu00.mmu.itb.walker

[system.cpu00.mmu.itb.walker]
type=X86PagetableWalker
children=power_state
clk_domain=system.cpu_clk_domain
eventq_index=0
num_squash_per_cycle=4
power_model=
power_state=system.cpu00.mmu.itb.walker.power_state
system=system
port=system.ruby.l0_cntrl0.sequencer.in_ports[2]

[system.cpu00.mmu.itb.walker.power_state]
type=PowerState
clk_gate_bins=20
clk_gate_max=1000000000000
clk_gate_min=1000
default_state=UNDEFINED
eventq_index=0
leaders=
possible_states=

[system.cpu00.power_state]
type=PowerState
clk_gate_bins=20
clk_gate_max=1000000000000
clk_gate_min=1000
default_state=UNDEFINED
eventq_index=0
leaders=
possible_states=ON CLK_GATED OFF

[system.cpu00.tracer]
type=ExeTracer
eventq_index=0

[system.cpu01]
type=BaseTimingSimpleCPU
children=decoder interrupts isa mmu power_state tracer
branchPred=Null
checker=Null
clk_domain=system.cpu_clk_domain
cpu_id=1
decoder=system.cpu01.decoder
do_checkpoint_insts=true
do_statistics_insts=true
eventq_index=0
function_trace=false
function_trace_start=0
interrupts=system.cpu01.interrupts
isa=system.cpu01.isa
max_insts_all_threads=0
max_insts_any_thread=0
mmu=system.cpu01.mmu
numThreads=1
power_gating_on_idle=false
power_model=
power_state=system.cpu01.power_state
progress_interval=0
pwr_gating_latency=300
simpoint_start_insts=
socket_id=0
switched_out=false
syscallRetryLatency=10000
system=system
tracer=system.cpu01.tracer
workload=
dcache_port=system.ruby.l0_cntrl1.sequencer.in_ports[1]
icache_port=system.ruby.l0_cntrl1.sequencer.in_ports[0]

[system.cpu01.decoder]
type=X86Decoder
eventq_index=0
isa=system.cpu01.isa

[system.cpu01.interrupts]
type=X86LocalApic
children=clk_domain
clk_domain=system.cpu01.interrupts.clk_domain
eventq_index=0
int_latency=1000
pio_latency=100000
system=system
int_requestor=system.ruby.l0_cntrl1.sequencer.in_ports[4]
int_responder=system.ruby.l0_cntrl1.sequencer.interrupt_out_port[1]
pio=system.ruby.l0_cntrl1.sequencer.interrupt_out_port[0]

[system.cpu01.interrupts.clk_domain]
type=DerivedClockDomain
clk_divider=16
clk_domain=system.cpu_clk_domain
eventq_index=0

[system.cpu01.isa]
type=X86ISA
eventq_index=0
vendor_string=HygonGenuine

[system.cpu01.mmu]
type=X86MMU
children=dtb itb
dtb=system.cpu01.mmu.dtb
eventq_index=0
itb=system.cpu01.mmu.itb

[system.cpu01.mmu.dtb]
type=X86TLB
children=walker
entry_type=data
eventq_index=0
next_level=Null
size=64
system=system
walker=system.cpu01.mmu.dtb.walker

[system.cpu01.mmu.dtb.walker]
type=X86PagetableWalker
children=power_state
clk_domain=system.cpu_clk_domain
eventq_index=0
num_squash_per_cycle=4
power_model=
power_state=system.cpu01.mmu.dtb.walker.power_state
system=system
port=system.ruby.l0_cntrl1.sequencer.in_ports[3]

[system.cpu01.mmu.dtb.walker.power_state]
type=PowerState
clk_gate_bins=20
clk_gate_max=1000000000000
clk_gate_min=1000
default_state=UNDEFINED
eventq_index=0
leaders=
possible_states=

[system.cpu01.mmu.itb]
type=X86TLB
children=walker
entry_type=instruction
eventq_index=0
next_level=Null
size=64
system=system
walker=system.cpu01.mmu.itb.walker

[system.cpu01.mmu.itb.walker]
type=X86PagetableWalker
children=power_state
clk_domain=system.cpu_clk_domain
eventq_index=0
num_squash_per_cycle=4
power_model=
power_state=system.cpu01.mmu.itb.walker.power_state
system=system
port=system.ruby.l0_cntrl1.sequencer.in_ports[2]

[system.cpu01.mmu.itb.walker.power_state]
type=PowerState
clk_gate_bins=20
clk_gate_max=1000000000000
clk_gate_min=1000
default_state=UNDEFINED
eventq_index=0
leaders=
possible_states=

[system.cpu01.power_state]
type=PowerState
clk_gate_bins=20
clk_gate_max=1000000000000
clk_gate_min=1000
default_state=UNDEFINED
eventq_index=0
leaders=
possible_states=ON CLK_GATED OFF

[system.cpu01.tracer]
type=ExeTracer
eventq_index=0

[system.cpu02]
type=BaseTimingSimpleCPU
children=decoder interrupts isa mmu power_state tracer
branchPred=Null
checker=Null
clk_domain=system.cpu_clk_domain
cpu_id=2
decoder=system.cpu02.decoder
do_checkpoint_insts=true
do_statistics_insts=true
eventq_index=0
function_trace=false
function_trace_start=0
interrupts=system.cpu02.interrupts
isa=system.cpu02.isa
max_insts_all_threads=0
max_insts_any_thread=0
mmu=system.cpu02.mmu
numThreads=1
power_gating_on_idle=false
power_model=
power_state=system.cpu02.power_state
progress_interval=0
pwr_gating_latency=300
simpoint_start_insts=
socket_id=0
switched_out=false
syscallRetryLatency=10000
system=system
tracer=system.cpu02.tracer
workload=
dcache_port=system.ruby.l0_cntrl2.sequencer.in_ports[1]
icache_port=system.ruby.l0_cntrl2.sequencer.in_ports[0]

[system.cpu02.decoder]
type=X86Decoder
eventq_index=0
isa=system.cpu02.isa

[system.cpu02.interrupts]
type=X86LocalApic
children=clk_domain
clk_domain=system.cpu02.interrupts.clk_domain
eventq_index=0
int_latency=1000
pio_latency=100000
system=system
int_requestor=system.ruby.l0_cntrl2.sequencer.in_ports[4]
int_responder=system.ruby.l0_cntrl2.sequencer.interrupt_out_port[1]
pio=system.ruby.l0_cntrl2.sequencer.interrupt_out_port[0]

[system.cpu02.interrupts.clk_domain]
type=DerivedClockDomain
clk_divider=16
clk_domain=system.cpu_clk_domain
eventq_index=0

[system.cpu02.isa]
type=X86ISA
eventq_index=0
vendor_string=HygonGenuine

[system.cpu02.mmu]
type=X86MMU
children=dtb itb
dtb=system.cpu02.mmu.dtb
eventq_index=0
itb=system.cpu02.mmu.itb

[system.cpu02.mmu.dtb]
type=X86TLB
children=walker
entry_type=data
eventq_index=0
next_level=Null
size=64
system=system
walker=system.cpu02.mmu.dtb.walker

[system.cpu02.mmu.dtb.walker]
type=X86PagetableWalker
children=power_state
clk_domain=system.cpu_clk_domain
eventq_index=0
num_squash_per_cycle=4
power_model=
power_state=system.cpu02.mmu.dtb.walker.power_state
system=system
port=system.ruby.l0_cntrl2.sequencer.in_ports[3]

[system.cpu02.mmu.dtb.walker.power_state]
type=PowerState
clk_gate_bins=20
clk_gate_max=1000000000000
clk_gate_min=1000
default_state=UNDEFINED
eventq_index=0
leaders=
possible_states=

[system.cpu02.mmu.itb]
type=X86TLB
children=walker
entry_type=instruction
eventq_index=0
next_level=Null
size=64
system=system
walker=system.cpu02.mmu.itb.walker

[system.cpu02.mmu.itb.walker]
type=X86PagetableWalker
children=power_state
clk_domain=system.cpu_clk_domain
eventq_index=0
num_squash_per_cycle=4
power_model=
power_state=system.cpu02.mmu.itb.walker.power_state
system=system
port=system.ruby.l0_cntrl2.sequencer.in_ports[2]

[system.cpu02.mmu.itb.walker.power_state]
type=PowerState
clk_gate_bins=20
clk_gate_max=1000000000000
clk_gate_min=1000
default_state=UNDEFINED
eventq_index=0
leaders=
possible_states=

[system.cpu02.power_state]
type=PowerState
clk_gate_bins=20
clk_gate_max=1000000000000
clk_gate_min=1000
default_state=UNDEFINED
eventq_index=0
leaders=
possible_states=ON CLK_GATED OFF

[system.cpu02.tracer]
type=ExeTracer
eventq_index=0

[system.cpu03]
type=BaseTimingSimpleCPU
children=decoder interrupts isa mmu power_state tracer
branchPred=Null
checker=Null
clk_domain=system.cpu_clk_domain
cpu_id=3
decoder=system.cpu03.decoder
do_checkpoint_insts=true
do_statistics_insts=true
eventq_index=0
function_trace=false
function_trace_start=0
interrupts=system.cpu03.interrupts
isa=system.cpu03.isa
max_insts_all_threads=0
max_insts_any_thread=0
mmu=system.cpu03.mmu
numThreads=1
power_gating_on_idle=false
power_model=
power_state=system.cpu03.power_state
progress_interval=0
pwr_gating_latency=300
simpoint_start_insts=
socket_id=0
switched_out=false
syscallRetryLatency=10000
system=system
tracer=system.cpu03.tracer
workload=
dcache_port=system.ruby.l0_cntrl3.sequencer.in_ports[1]
icache_port=system.ruby.l0_cntrl3.sequencer.in_ports[0]

[system.cpu03.decoder]
type=X86Decoder
eventq_index=0
isa=system.cpu03.isa

[system.cpu03.interrupts]
type=X86LocalApic
children=clk_domain
clk_domain=system.cpu03.interrupts.clk_domain
eventq_index=0
int_latency=1000
pio_latency=100000
system=system
int_requestor=system.ruby.l0_cntrl3.sequencer.in_ports[4]
int_responder=system.ruby.l0_cntrl3.sequencer.interrupt_out_port[1]
pio=system.ruby.l0_cntrl3.sequencer.interrupt_out_port[0]

[system.cpu03.interrupts.clk_domain]
type=DerivedClockDomain
clk_divider=16
clk_domain=system.cpu_clk_domain
eventq_index=0

[system.cpu03.isa]
type=X86ISA
eventq_index=0
vendor_string=HygonGenuine

[system.cpu03.mmu]
type=X86MMU
children=dtb itb
dtb=system.cpu03.mmu.dtb
eventq_index=0
itb=system.cpu03.mmu.itb

[system.cpu03.mmu.dtb]
type=X86TLB
children=walker
entry_type=data
eventq_index=0
next_level=Null
size=64
system=system
walker=system.cpu03.mmu.dtb.walker

[system.cpu03.mmu.dtb.walker]
type=X86PagetableWalker
children=power_state
clk_domain=system.cpu_clk_domain
eventq_index=0
num_squash_per_cycle=4
power_model=
power_state=system.cpu03.mmu.dtb.walker.power_state
system=system
port=system.ruby.l0_cntrl3.sequencer.in_ports[3]

[system.cpu03.mmu.dtb.walker.power_state]
type=PowerState
clk_gate_bins=20
clk_gate_max=1000000000000
clk_gate_min=1000
default_state=UNDEFINED
eventq_index=0
leaders=
possible_states=

[system.cpu03.mmu.itb]
type=X86TLB
children=walker
entry_type=instruction
eventq_index=0
next_level=Null
size=64
system=system
walker=system.cpu03.mmu.itb.walker

[system.cpu03.mmu.itb.walker]
type=X86PagetableWalker
children=power_state
clk_domain=system.cpu_clk_domain
eventq_index=0
num_squash_per_cycle=4
power_model=
power_state=system.cpu03.mmu.itb.walker.power_state
system=system
port=system.ruby.l0_cntrl3.sequencer.in_ports[2]

[system.cpu03.mmu.itb.walker.power_state]
type=PowerState
clk_gate_bins=20
clk_gate_max=1000000000000
clk_gate_min=1000
default_state=UNDEFINED
eventq_index=0
leaders=
possible_states=

[system.cpu03.power_state]
type=PowerState
clk_gate_bins=20
clk_gate_max=1000000000000
clk_gate_min=1000
default_state=UNDEFINED
eventq_index=0
leaders=
possible_states=ON CLK_GATED OFF

[system.cpu03.tracer]
type=ExeTracer
eventq_index=0

[system.cpu04]
type=BaseTimingSimpleCPU
children=decoder interrupts isa mmu power_state tracer
branchPred=Null
checker=Null
clk_domain=system.cpu_clk_domain
cpu_id=4
decoder=system.cpu04.decoder
do_checkpoint_insts=true
do_statistics_insts=true
eventq_index=0
function_trace=false
function_trace_start=0
interrupts=system.cpu04.interrupts
isa=system.cpu04.isa
max_insts_all_threads=0
max_insts_any_thread=0
mmu=system.cpu04.mmu
numThreads=1
power_gating_on_idle=false
power_model=
power_state=system.cpu04.power_state
progress_interval=0
pwr_gating_latency=300
simpoint_start_insts=
socket_id=0
switched_out=false
syscallRetryLatency=10000
system=system
tracer=system.cpu04.tracer
workload=
dcache_port=system.ruby.l0_cntrl4.sequencer.in_ports[1]
icache_port=system.ruby.l0_cntrl4.sequencer.in_ports[0]

[system.cpu04.decoder]
type=X86Decoder
eventq_index=0
isa=system.cpu04.isa

[system.cpu04.interrupts]
type=X86LocalApic
children=clk_domain
clk_domain=system.cpu04.interrupts.clk_domain
eventq_index=0
int_latency=1000
pio_latency=100000
system=system
int_requestor=system.ruby.l0_cntrl4.sequencer.in_ports[4]
int_responder=system.ruby.l0_cntrl4.sequencer.interrupt_out_port[1]
pio=system.ruby.l0_cntrl4.sequencer.interrupt_out_port[0]

[system.cpu04.interrupts.clk_domain]
type=DerivedClockDomain
clk_divider=16
clk_domain=system.cpu_clk_domain
eventq_index=0

[system.cpu04.isa]
type=X86ISA
eventq_index=0
vendor_string=HygonGenuine

[system.cpu04.mmu]
type=X86MMU
children=dtb itb
dtb=system.cpu04.mmu.dtb
eventq_index=0
itb=system.cpu04.mmu.itb

[system.cpu04.mmu.dtb]
type=X86TLB
children=walker
entry_type=data
eventq_index=0
next_level=Null
size=64
system=system
walker=system.cpu04.mmu.dtb.walker

[system.cpu04.mmu.dtb.walker]
type=X86PagetableWalker
children=power_state
clk_domain=system.cpu_clk_domain
eventq_index=0
num_squash_per_cycle=4
power_model=
power_state=system.cpu04.mmu.dtb.walker.power_state
system=system
port=system.ruby.l0_cntrl4.sequencer.in_ports[3]

[system.cpu04.mmu.dtb.walker.power_state]
type=PowerState
clk_gate_bins=20
clk_gate_max=1000000000000
clk_gate_min=1000
default_state=UNDEFINED
eventq_index=0
leaders=
possible_states=

[system.cpu04.mmu.itb]
type=X86TLB
children=walker
entry_type=instruction
eventq_index=0
next_level=Null
size=64
system=system
walker=system.cpu04.mmu.itb.walker

[system.cpu04.mmu.itb.walker]
type=X86PagetableWalker
children=power_state
clk_domain=system.cpu_clk_domain
eventq_index=0
num_squash_per_cycle=4
power_model=
power_state=system.cpu04.mmu.itb.walker.power_state
system=system
port=system.ruby.l0_cntrl4.sequencer.in_ports[2]

[system.cpu04.mmu.itb.walker.power_state]
type=PowerState
clk_gate_bins=20
clk_gate_max=1000000000000
clk_gate_min=1000
default_state=UNDEFINED
eventq_index=0
leaders=
possible_states=

[system.cpu04.power_state]
type=PowerState
clk_gate_bins=20
clk_gate_max=1000000000000
clk_gate_min=1000
default_state=UNDEFINED
eventq_index=0
leaders=
possible_states=ON CLK_GATED OFF

[system.cpu04.tracer]
type=ExeTracer
eventq_index=0

[system.cpu05]
type=BaseTimingSimpleCPU
children=decoder interrupts isa mmu power_state tracer
branchPred=Null
checker=Null
clk_domain=system.cpu_clk_domain
cpu_id=5
decoder=system.cpu05.decoder
do_checkpoint_insts=true
do_statistics_insts=true
eventq_index=0
function_trace=false
function_trace_start=0
interrupts=system.cpu05.interrupts
isa=system.cpu05.isa
max_insts_all_threads=0
max_insts_any_thread=0
mmu=system.cpu05.mmu
numThreads=1
power_gating_on_idle=false
power_model=
power_state=system.cpu05.power_state
progress_interval=0
pwr_gating_latency=300
simpoint_start_insts=
socket_id=0
switched_out=false
syscallRetryLatency=10000
system=system
tracer=system.cpu05.tracer
workload=
dcache_port=system.ruby.l0_cntrl5.sequencer.in_ports[1]
icache_port=system.ruby.l0_cntrl5.sequencer.in_ports[0]

[system.cpu05.decoder]
type=X86Decoder
eventq_index=0
isa=system.cpu05.isa

[system.cpu05.interrupts]
type=X86LocalApic
children=clk_domain
clk_domain=system.cpu05.interrupts.clk_domain
eventq_index=0
int_latency=1000
pio_latency=100000
system=system
int_requestor=system.ruby.l0_cntrl5.sequencer.in_ports[4]
int_responder=system.ruby.l0_cntrl5.sequencer.interrupt_out_port[1]
pio=system.ruby.l0_cntrl5.sequencer.interrupt_out_port[0]

[system.cpu05.interrupts.clk_domain]
type=DerivedClockDomain
clk_divider=16
clk_domain=system.cpu_clk_domain
eventq_index=0

[system.cpu05.isa]
type=X86ISA
eventq_index=0
vendor_string=HygonGenuine

[system.cpu05.mmu]
type=X86MMU
children=dtb itb
dtb=system.cpu05.mmu.dtb
eventq_index=0
itb=system.cpu05.mmu.itb

[system.cpu05.mmu.dtb]
type=X86TLB
children=walker
entry_type=data
eventq_index=0
next_level=Null
size=64
system=system
walker=system.cpu05.mmu.dtb.walker

[system.cpu05.mmu.dtb.walker]
type=X86PagetableWalker
children=power_state
clk_domain=system.cpu_clk_domain
eventq_index=0
num_squash_per_cycle=4
power_model=
power_state=system.cpu05.mmu.dtb.walker.power_state
system=system
port=system.ruby.l0_cntrl5.sequencer.in_ports[3]

[system.cpu05.mmu.dtb.walker.power_state]
type=PowerState
clk_gate_bins=20
clk_gate_max=1000000000000
clk_gate_min=1000
default_state=UNDEFINED
eventq_index=0
leaders=
possible_states=

[system.cpu05.mmu.itb]
type=X86TLB
children=walker
entry_type=instruction
eventq_index=0
next_level=Null
size=64
system=system
walker=system.cpu05.mmu.itb.walker

[system.cpu05.mmu.itb.walker]
type=X86PagetableWalker
children=power_state
clk_domain=system.cpu_clk_domain
eventq_index=0
num_squash_per_cycle=4
power_model=
power_state=system.cpu05.mmu.itb.walker.power_state
system=system
port=system.ruby.l0_cntrl5.sequencer.in_ports[2]

[system.cpu05.mmu.itb.walker.power_state]
type=PowerState
clk_gate_bins=20
clk_gate_max=1000000000000
clk_gate_min=1000
default_state=UNDEFINED
eventq_index=0
leaders=
possible_states=

[system.cpu05.power_state]
type=PowerState
clk_gate_bins=20
clk_gate_max=1000000000000
clk_gate_min=1000
default_state=UNDEFINED
eventq_index=0
leaders=
possible_states=ON CLK_GATED OFF

[system.cpu05.tracer]
type=ExeTracer
eventq_index=0

[system.cpu06]
type=BaseTimingSimpleCPU
children=decoder interrupts isa mmu power_state tracer
branchPred=Null
checker=Null
clk_domain=system.cpu_clk_domain
cpu_id=6
decoder=system.cpu06.decoder
do_checkpoint_insts=true
do_statistics_insts=true
eventq_index=0
function_trace=false
function_trace_start=0
interrupts=system.cpu06.interrupts
isa=system.cpu06.isa
max_insts_all_threads=0
max_insts_any_thread=0
mmu=system.cpu06.mmu
numThreads=1
power_gating_on_idle=false
power_model=
power_state=system.cpu06.power_state
progress_interval=0
pwr_gating_latency=300
simpoint_start_insts=
socket_id=0
switched_out=false
syscallRetryLatency=10000
system=system
tracer=system.cpu06.tracer
workload=
dcache_port=system.ruby.l0_cntrl6.sequencer.in_ports[1]
icache_port=system.ruby.l0_cntrl6.sequencer.in_ports[0]

[system.cpu06.decoder]
type=X86Decoder
eventq_index=0
isa=system.cpu06.isa

[system.cpu06.interrupts]
type=X86LocalApic
children=clk_domain
clk_domain=system.cpu06.interrupts.clk_domain
eventq_index=0
int_latency=1000
pio_latency=100000
system=system
int_requestor=system.ruby.l0_cntrl6.sequencer.in_ports[4]
int_responder=system.ruby.l0_cntrl6.sequencer.interrupt_out_port[1]
pio=system.ruby.l0_cntrl6.sequencer.interrupt_out_port[0]

[system.cpu06.interrupts.clk_domain]
type=DerivedClockDomain
clk_divider=16
clk_domain=system.cpu_clk_domain
eventq_index=0

[system.cpu06.isa]
type=X86ISA
eventq_index=0
vendor_string=HygonGenuine

[system.cpu06.mmu]
type=X86MMU
children=dtb itb
dtb=system.cpu06.mmu.dtb
eventq_index=0
itb=system.cpu06.mmu.itb

[system.cpu06.mmu.dtb]
type=X86TLB
children=walker
entry_type=data
eventq_index=0
next_level=Null
size=64
system=system
walker=system.cpu06.mmu.dtb.walker

[system.cpu06.mmu.dtb.walker]
type=X86PagetableWalker
children=power_state
clk_domain=system.cpu_clk_domain
eventq_index=0
num_squash_per_cycle=4
power_model=
power_state=system.cpu06.mmu.dtb.walker.power_state
system=system
port=system.ruby.l0_cntrl6.sequencer.in_ports[3]

[system.cpu06.mmu.dtb.walker.power_state]
type=PowerState
clk_gate_bins=20
clk_gate_max=1000000000000
clk_gate_min=1000
default_state=UNDEFINED
eventq_index=0
leaders=
possible_states=

[system.cpu06.mmu.itb]
type=X86TLB
children=walker
entry_type=instruction
eventq_index=0
next_level=Null
size=64
system=system
walker=system.cpu06.mmu.itb.walker

[system.cpu06.mmu.itb.walker]
type=X86PagetableWalker
children=power_state
clk_domain=system.cpu_clk_domain
eventq_index=0
num_squash_per_cycle=4
power_model=
power_state=system.cpu06.mmu.itb.walker.power_state
system=system
port=system.ruby.l0_cntrl6.sequencer.in_ports[2]

[system.cpu06.mmu.itb.walker.power_state]
type=PowerState
clk_gate_bins=20
clk_gate_max=1000000000000
clk_gate_min=1000
default_state=UNDEFINED
eventq_index=0
leaders=
possible_states=

[system.cpu06.power_state]
type=PowerState
clk_gate_bins=20
clk_gate_max=1000000000000
clk_gate_min=1000
default_state=UNDEFINED
eventq_index=0
leaders=
possible_states=ON CLK_GATED OFF

[system.cpu06.tracer]
type=ExeTracer
eventq_index=0

[system.cpu07]
type=BaseTimingSimpleCPU
children=decoder interrupts isa mmu power_state tracer
branchPred=Null
checker=Null
clk_domain=system.cpu_clk_domain
cpu_id=7
decoder=system.cpu07.decoder
do_checkpoint_insts=true
do_statistics_insts=true
eventq_index=0
function_trace=false
function_trace_start=0
interrupts=system.cpu07.interrupts
isa=system.cpu07.isa
max_insts_all_threads=0
max_insts_any_thread=0
mmu=system.cpu07.mmu
numThreads=1
power_gating_on_idle=false
power_model=
power_state=system.cpu07.power_state
progress_interval=0
pwr_gating_latency=300
simpoint_start_insts=
socket_id=0
switched_out=false
syscallRetryLatency=10000
system=system
tracer=system.cpu07.tracer
workload=
dcache_port=system.ruby.l0_cntrl7.sequencer.in_ports[1]
icache_port=system.ruby.l0_cntrl7.sequencer.in_ports[0]

[system.cpu07.decoder]
type=X86Decoder
eventq_index=0
isa=system.cpu07.isa

[system.cpu07.interrupts]
type=X86LocalApic
children=clk_domain
clk_domain=system.cpu07.interrupts.clk_domain
eventq_index=0
int_latency=1000
pio_latency=100000
system=system
int_requestor=system.ruby.l0_cntrl7.sequencer.in_ports[4]
int_responder=system.ruby.l0_cntrl7.sequencer.interrupt_out_port[1]
pio=system.ruby.l0_cntrl7.sequencer.interrupt_out_port[0]

[system.cpu07.interrupts.clk_domain]
type=DerivedClockDomain
clk_divider=16
clk_domain=system.cpu_clk_domain
eventq_index=0

[system.cpu07.isa]
type=X86ISA
eventq_index=0
vendor_string=HygonGenuine

[system.cpu07.mmu]
type=X86MMU
children=dtb itb
dtb=system.cpu07.mmu.dtb
eventq_index=0
itb=system.cpu07.mmu.itb

[system.cpu07.mmu.dtb]
type=X86TLB
children=walker
entry_type=data
eventq_index=0
next_level=Null
size=64
system=system
walker=system.cpu07.mmu.dtb.walker

[system.cpu07.mmu.dtb.walker]
type=X86PagetableWalker
children=power_state
clk_domain=system.cpu_clk_domain
eventq_index=0
num_squash_per_cycle=4
power_model=
power_state=system.cpu07.mmu.dtb.walker.power_state
system=system
port=system.ruby.l0_cntrl7.sequencer.in_ports[3]

[system.cpu07.mmu.dtb.walker.power_state]
type=PowerState
clk_gate_bins=20
clk_gate_max=1000000000000
clk_gate_min=1000
default_state=UNDEFINED
eventq_index=0
leaders=
possible_states=

[system.cpu07.mmu.itb]
type=X86TLB
children=walker
entry_type=instruction
eventq_index=0
next_level=Null
size=64
system=system
walker=system.cpu07.mmu.itb.walker

[system.cpu07.mmu.itb.walker]
type=X86PagetableWalker
children=power_state
clk_domain=system.cpu_clk_domain
eventq_index=0
num_squash_per_cycle=4
power_model=
power_state=system.cpu07.mmu.itb.walker.power_state
system=system
port=system.ruby.l0_cntrl7.sequencer.in_ports[2]

[system.cpu07.mmu.itb.walker.power_state]
type=PowerState
clk_gate_bins=20
clk_gate_max=1000000000000
clk_gate_min=1000
default_state=UNDEFINED
eventq_index=0
leaders=
possible_states=

[system.cpu07.power_state]
type=PowerState
clk_gate_bins=20
clk_gate_max=1000000000000
clk_gate_min=1000
default_state=UNDEFINED
eventq_index=0
leaders=
possible_states=ON CLK_GATED OFF

[system.cpu07.tracer]
type=ExeTracer
eventq_index=0

[system.cpu08]
type=BaseTimingSimpleCPU
children=decoder interrupts isa mmu power_state tracer
branchPred=Null
checker=Null
clk_domain=system.cpu_clk_domain
cpu_id=8
decoder=system.cpu08.decoder
do_checkpoint_insts=true
do_statistics_insts=true
eventq_index=0
function_trace=false
function_trace_start=0
interrupts=system.cpu08.interrupts
isa=system.cpu08.isa
max_insts_all_threads=0
max_insts_any_thread=0
mmu=system.cpu08.mmu
numThreads=1
power_gating_on_idle=false
power_model=
power_state=system.cpu08.power_state
progress_interval=0
pwr_gating_latency=300
simpoint_start_insts=
socket_id=0
switched_out=false
syscallRetryLatency=10000
system=system
tracer=system.cpu08.tracer
workload=
dcache_port=system.ruby.l0_cntrl8.sequencer.in_ports[1]
icache_port=system.ruby.l0_cntrl8.sequencer.in_ports[0]

[system.cpu08.decoder]
type=X86Decoder
eventq_index=0
isa=system.cpu08.isa

[system.cpu08.interrupts]
type=X86LocalApic
children=clk_domain
clk_domain=system.cpu08.interrupts.clk_domain
eventq_index=0
int_latency=1000
pio_latency=100000
system=system
int_requestor=system.ruby.l0_cntrl8.sequencer.in_ports[4]
int_responder=system.ruby.l0_cntrl8.sequencer.interrupt_out_port[1]
pio=system.ruby.l0_cntrl8.sequencer.interrupt_out_port[0]

[system.cpu08.interrupts.clk_domain]
type=DerivedClockDomain
clk_divider=16
clk_domain=system.cpu_clk_domain
eventq_index=0

[system.cpu08.isa]
type=X86ISA
eventq_index=0
vendor_string=HygonGenuine

[system.cpu08.mmu]
type=X86MMU
children=dtb itb
dtb=system.cpu08.mmu.dtb
eventq_index=0
itb=system.cpu08.mmu.itb

[system.cpu08.mmu.dtb]
type=X86TLB
children=walker
entry_type=data
eventq_index=0
next_level=Null
size=64
system=system
walker=system.cpu08.mmu.dtb.walker

[system.cpu08.mmu.dtb.walker]
type=X86PagetableWalker
children=power_state
clk_domain=system.cpu_clk_domain
eventq_index=0
num_squash_per_cycle=4
power_model=
power_state=system.cpu08.mmu.dtb.walker.power_state
system=system
port=system.ruby.l0_cntrl8.sequencer.in_ports[3]

[system.cpu08.mmu.dtb.walker.power_state]
type=PowerState
clk_gate_bins=20
clk_gate_max=1000000000000
clk_gate_min=1000
default_state=UNDEFINED
eventq_index=0
leaders=
possible_states=

[system.cpu08.mmu.itb]
type=X86TLB
children=walker
entry_type=instruction
eventq_index=0
next_level=Null
size=64
system=system
walker=system.cpu08.mmu.itb.walker

[system.cpu08.mmu.itb.walker]
type=X86PagetableWalker
children=power_state
clk_domain=system.cpu_clk_domain
eventq_index=0
num_squash_per_cycle=4
power_model=
power_state=system.cpu08.mmu.itb.walker.power_state
system=system
port=system.ruby.l0_cntrl8.sequencer.in_ports[2]

[system.cpu08.mmu.itb.walker.power_state]
type=PowerState
clk_gate_bins=20
clk_gate_max=1000000000000
clk_gate_min=1000
default_state=UNDEFINED
eventq_index=0
leaders=
possible_states=

[system.cpu08.power_state]
type=PowerState
clk_gate_bins=20
clk_gate_max=1000000000000
clk_gate_min=1000
default_state=UNDEFINED
eventq_index=0
leaders=
possible_states=ON CLK_GATED OFF

[system.cpu08.tracer]
type=ExeTracer
eventq_index=0

[system.cpu09]
type=BaseTimingSimpleCPU
children=decoder interrupts isa mmu power_state tracer
branchPred=Null
checker=Null
clk_domain=system.cpu_clk_domain
cpu_id=9
decoder=system.cpu09.decoder
do_checkpoint_insts=true
do_statistics_insts=true
eventq_index=0
function_trace=false
function_trace_start=0
interrupts=system.cpu09.interrupts
isa=system.cpu09.isa
max_insts_all_threads=0
max_insts_any_thread=0
mmu=system.cpu09.mmu
numThreads=1
power_gating_on_idle=false
power_model=
power_state=system.cpu09.power_state
progress_interval=0
pwr_gating_latency=300
simpoint_start_insts=
socket_id=0
switched_out=false
syscallRetryLatency=10000
system=system
tracer=system.cpu09.tracer
workload=
dcache_port=system.ruby.l0_cntrl9.sequencer.in_ports[1]
icache_port=system.ruby.l0_cntrl9.sequencer.in_ports[0]

[system.cpu09.decoder]
type=X86Decoder
eventq_index=0
isa=system.cpu09.isa

[system.cpu09.interrupts]
type=X86LocalApic
children=clk_domain
clk_domain=system.cpu09.interrupts.clk_domain
eventq_index=0
int_latency=1000
pio_latency=100000
system=system
int_requestor=system.ruby.l0_cntrl9.sequencer.in_ports[4]